<additional>
    <tlLogic id="1" programID="stuff" offset="0" type="static">
         <phase duration="30.0" state="rrrrGGgGrrrrGGgG" />
         <phase duration="5" state="rrrryygyrrrryygy" />
         <phase duration="5.0" state="rrrrrrGrrrrrrrGr" />
         <phase duration="5" state="rrrrrryrrrrrrryr" />
         <phase duration="28.70915236971043" state="GGgGrrrrGGgGrrrr" />
         <phase duration="5" state="yygyrrrryygyrrrr" />
         <phase duration="6.587599658579422" state="rrGrrrrrrrGrrrrr" />
         <phase duration="5" state="rryrrrrrrryrrrrr" />
    </tlLogic>
</additional>
