<?xml version="1.0" encoding="iso-8859-1"?>
<connections xmlns:xsi="http://www.w3.org/2001/XMLSchema-instance"
xsi:noNamespaceSchemaLocation="http://sumo.dlr.de/xsd/connections_file.xsd">
    <connection from="4001" to="1003"/>
    <connection from="4001" to="1002"/>
    <connection from="4001" to="1005"/>
    <connection from="3001" to="1002"/>
    <connection from="3001" to="1005"/>
    <connection from="3001" to="1004"/>
    <connection from="2001" to="1005"/>
    <connection from="2001" to="1004"/>
    <connection from="2001" to="1003"/>
    <connection from="5001" to="1004"/>
    <connection from="5001" to="1003"/>
    <connection from="5001" to="1002"/>
</connections>
