<?xml version="1.0" encoding="UTF-8"?>

<!-- generated on 2025-11-16 18:59:32 by Eclipse SUMO netconvert Version 1.18.0
<configuration xmlns:xsi="http://www.w3.org/2001/XMLSchema-instance" xsi:noNamespaceSchemaLocation="http://sumo.dlr.de/xsd/netconvertConfiguration.xsd">

    <input>
        <node-files value="data/cross.nod.xml"/>
        <edge-files value="data/cross.edg.xml"/>
    </input>

    <output>
        <output-file value="data/cross.net.xml"/>
    </output>

</configuration>
-->

<net version="1.16" junctionCornerDetail="5" limitTurnSpeed="5.50" xmlns:xsi="http://www.w3.org/2001/XMLSchema-instance" xsi:noNamespaceSchemaLocation="http://sumo.dlr.de/xsd/net_file.xsd">

    <location netOffset="0.00,0.00" convBoundary="0.00,0.00,1000.00,1000.00" origBoundary="0.00,0.00,1000.00,1000.00" projParameter="!"/>

    <edge id=":1_0" function="internal">
        <lane id=":1_0_0" index="0" speed="6.51" length="9.03" shape="498.40,507.20 498.05,504.75 497.00,503.00 495.25,501.95 492.80,501.60"/>
    </edge>
    <edge id=":1_1" function="internal">
        <lane id=":1_1_0" index="0" speed="8.50" length="14.40" shape="498.40,507.20 498.40,492.80"/>
    </edge>
    <edge id=":1_2" function="internal">
        <lane id=":1_2_0" index="0" speed="6.50" length="4.07" shape="498.40,507.20 498.95,503.35 499.04,503.20"/>
    </edge>
    <edge id=":1_3" function="internal">
        <lane id=":1_3_0" index="0" speed="3.65" length="1.44" shape="498.40,507.20 499.20,506.00"/>
    </edge>
    <edge id=":1_16" function="internal">
        <lane id=":1_16_0" index="0" speed="6.50" length="10.13" shape="499.04,503.20 500.60,500.60 503.35,498.95 507.20,498.40"/>
    </edge>
    <edge id=":1_17" function="internal">
        <lane id=":1_17_0" index="0" speed="3.65" length="3.23" shape="499.20,506.00 500.00,505.60 500.80,506.00 501.60,507.20"/>
    </edge>
    <edge id=":1_4" function="internal">
        <lane id=":1_4_0" index="0" speed="6.51" length="9.03" shape="507.20,501.60 504.75,501.95 503.00,503.00 501.95,504.75 501.60,507.20"/>
    </edge>
    <edge id=":1_5" function="internal">
        <lane id=":1_5_0" index="0" speed="12.50" length="14.40" shape="507.20,501.60 492.80,501.60"/>
    </edge>
    <edge id=":1_6" function="internal">
        <lane id=":1_6_0" index="0" speed="8.00" length="4.07" shape="507.20,501.60 503.35,501.05 503.20,500.96"/>
    </edge>
    <edge id=":1_7" function="internal">
        <lane id=":1_7_0" index="0" speed="3.65" length="1.44" shape="507.20,501.60 506.00,500.80"/>
    </edge>
    <edge id=":1_18" function="internal">
        <lane id=":1_18_0" index="0" speed="8.00" length="10.13" shape="503.20,500.96 500.60,499.40 498.95,496.65 498.40,492.80"/>
    </edge>
    <edge id=":1_19" function="internal">
        <lane id=":1_19_0" index="0" speed="3.65" length="3.23" shape="506.00,500.80 505.60,500.00 506.00,499.20 507.20,498.40"/>
    </edge>
    <edge id=":1_8" function="internal">
        <lane id=":1_8_0" index="0" speed="6.51" length="9.03" shape="501.60,492.80 501.95,495.25 503.00,497.00 504.75,498.05 507.20,498.40"/>
    </edge>
    <edge id=":1_9" function="internal">
        <lane id=":1_9_0" index="0" speed="10.00" length="14.40" shape="501.60,492.80 501.60,507.20"/>
    </edge>
    <edge id=":1_10" function="internal">
        <lane id=":1_10_0" index="0" speed="8.00" length="4.07" shape="501.60,492.80 501.05,496.65 500.96,496.80"/>
    </edge>
    <edge id=":1_11" function="internal">
        <lane id=":1_11_0" index="0" speed="3.65" length="1.44" shape="501.60,492.80 500.80,494.00"/>
    </edge>
    <edge id=":1_20" function="internal">
        <lane id=":1_20_0" index="0" speed="8.00" length="10.13" shape="500.96,496.80 499.40,499.40 496.65,501.05 492.80,501.60"/>
    </edge>
    <edge id=":1_21" function="internal">
        <lane id=":1_21_0" index="0" speed="3.65" length="3.23" shape="500.80,494.00 500.00,494.40 499.20,494.00 498.40,492.80"/>
    </edge>
    <edge id=":1_12" function="internal">
        <lane id=":1_12_0" index="0" speed="6.51" length="9.03" shape="492.80,498.40 495.25,498.05 497.00,497.00 498.05,495.25 498.40,492.80"/>
    </edge>
    <edge id=":1_13" function="internal">
        <lane id=":1_13_0" index="0" speed="9.00" length="14.40" shape="492.80,498.40 507.20,498.40"/>
    </edge>
    <edge id=":1_14" function="internal">
        <lane id=":1_14_0" index="0" speed="8.00" length="4.07" shape="492.80,498.40 496.65,498.95 496.80,499.04"/>
    </edge>
    <edge id=":1_15" function="internal">
        <lane id=":1_15_0" index="0" speed="3.65" length="1.44" shape="492.80,498.40 494.00,499.20"/>
    </edge>
    <edge id=":1_22" function="internal">
        <lane id=":1_22_0" index="0" speed="8.00" length="10.13" shape="496.80,499.04 499.40,500.60 501.05,503.35 501.60,507.20"/>
    </edge>
    <edge id=":1_23" function="internal">
        <lane id=":1_23_0" index="0" speed="3.65" length="3.23" shape="494.00,499.20 494.40,500.00 494.00,500.80 492.80,501.60"/>
    </edge>
    <edge id=":2_0" function="internal">
        <lane id=":2_0_0" index="0" speed="3.65" length="4.67" shape="498.40,0.00 499.20,-1.20 500.00,-1.60 500.80,-1.20 501.60,0.00"/>
    </edge>
    <edge id=":3_0" function="internal">
        <lane id=":3_0_0" index="0" speed="3.65" length="4.67" shape="1000.00,498.40 1001.20,499.20 1001.60,500.00 1001.20,500.80 1000.00,501.60"/>
    </edge>
    <edge id=":4_0" function="internal">
        <lane id=":4_0_0" index="0" speed="3.65" length="4.67" shape="501.60,1000.00 500.80,1001.20 500.00,1001.60 499.20,1001.20 498.40,1000.00"/>
    </edge>
    <edge id=":5_0" function="internal">
        <lane id=":5_0_0" index="0" speed="3.65" length="4.67" shape="0.00,501.60 -1.20,500.80 -1.60,500.00 -1.20,499.20 0.00,498.40"/>
    </edge>

    <edge id="1002" from="1" to="2" priority="80">
        <lane id="1002_0" index="0" speed="11.00" length="492.80" shape="498.40,492.80 498.40,0.00"/>
    </edge>
    <edge id="1003" from="1" to="3" priority="80">
        <lane id="1003_0" index="0" speed="7.00" length="492.80" shape="507.20,498.40 1000.00,498.40"/>
    </edge>
    <edge id="1004" from="1" to="4" priority="80">
        <lane id="1004_0" index="0" speed="11.00" length="492.80" shape="501.60,507.20 501.60,1000.00"/>
    </edge>
    <edge id="1005" from="1" to="5" priority="80">
        <lane id="1005_0" index="0" speed="12.00" length="492.80" shape="492.80,501.60 0.00,501.60"/>
    </edge>
    <edge id="2001" from="2" to="1" priority="80">
        <lane id="2001_0" index="0" speed="9.00" length="492.80" shape="501.60,0.00 501.60,492.80"/>
    </edge>
    <edge id="3001" from="3" to="1" priority="80">
        <lane id="3001_0" index="0" speed="13.00" length="492.80" shape="1000.00,501.60 507.20,501.60"/>
    </edge>
    <edge id="4001" from="4" to="1" priority="80">
        <lane id="4001_0" index="0" speed="6.00" length="492.80" shape="498.40,1000.00 498.40,507.20"/>
    </edge>
    <edge id="5001" from="5" to="1" priority="80">
        <lane id="5001_0" index="0" speed="11.00" length="492.80" shape="0.00,498.40 492.80,498.40"/>
    </edge>

    <tlLogic id="1" type="static" programID="0" offset="0">
        <phase duration="42" state="rrrrGGggrrrrGGgg"/>
        <phase duration="3"  state="rrrryyyyrrrryyyy"/>
        <phase duration="42" state="GGggrrrrGGggrrrr"/>
        <phase duration="3"  state="yyyyrrrryyyyrrrr"/>
    </tlLogic>

    <junction id="1" type="traffic_light" x="500.00" y="500.00" incLanes="4001_0 3001_0 2001_0 5001_0" intLanes=":1_0_0 :1_1_0 :1_16_0 :1_17_0 :1_4_0 :1_5_0 :1_18_0 :1_19_0 :1_8_0 :1_9_0 :1_20_0 :1_21_0 :1_12_0 :1_13_0 :1_22_0 :1_23_0" shape="496.80,507.20 503.20,507.20 503.64,504.98 504.20,504.20 504.98,503.64 505.98,503.31 507.20,503.20 507.20,496.80 504.98,496.36 504.20,495.80 503.64,495.02 503.31,494.02 503.20,492.80 496.80,492.80 496.36,495.02 495.80,495.80 495.02,496.36 494.02,496.69 492.80,496.80 492.80,503.20 495.02,503.64 495.80,504.20 496.36,504.98 496.69,505.98">
        <request index="0"  response="0000000000100000" foes="1000010000100000" cont="0"/>
        <request index="1"  response="0111000001100000" foes="0111110001100000" cont="0"/>
        <request index="2"  response="0110001101100000" foes="0110011111100000" cont="1"/>
        <request index="3"  response="0100001000010000" foes="0100001000010000" cont="1"/>
        <request index="4"  response="0000000000000000" foes="0100001000001000" cont="0"/>
        <request index="5"  response="0000010000000100" foes="1100011000000111" cont="0"/>
        <request index="6"  response="0111010000000100" foes="0111111000000110" cont="1"/>
        <request index="7"  response="0010000100000100" foes="0010000100000100" cont="1"/>
        <request index="8"  response="0010000000000000" foes="0010000010000100" cont="0"/>
        <request index="9"  response="0110000001110000" foes="0110000001111100" cont="0"/>
        <request index="10" response="0110000001100111" foes="1110000001100111" cont="1"/>
        <request index="11" response="0001000001000010" foes="0001000001000010" cont="1"/>
        <request index="12" response="0000000000000000" foes="0000100001000010" cont="0"/>
        <request index="13" response="0000010000000100" foes="0000011111000110" cont="0"/>
        <request index="14" response="0000010000110100" foes="0000011001111110" cont="1"/>
        <request index="15" response="0000010000100001" foes="0000010000100001" cont="1"/>
    </junction>
    <junction id="2" type="priority" x="500.00" y="0.00" incLanes="1002_0" intLanes=":2_0_0" shape="500.00,0.00 496.80,0.00 500.00,0.00">
        <request index="0" response="0" foes="0" cont="0"/>
    </junction>
    <junction id="3" type="priority" x="1000.00" y="500.00" incLanes="1003_0" intLanes=":3_0_0" shape="1000.00,500.00 1000.00,496.80 1000.00,500.00">
        <request index="0" response="0" foes="0" cont="0"/>
    </junction>
    <junction id="4" type="priority" x="500.00" y="1000.00" incLanes="1004_0" intLanes=":4_0_0" shape="500.00,1000.00 503.20,1000.00 500.00,1000.00">
        <request index="0" response="0" foes="0" cont="0"/>
    </junction>
    <junction id="5" type="priority" x="0.00" y="500.00" incLanes="1005_0" intLanes=":5_0_0" shape="0.00,500.00 0.00,503.20 0.00,500.00">
        <request index="0" response="0" foes="0" cont="0"/>
    </junction>

    <junction id=":1_16_0" type="internal" x="499.04" y="503.20" incLanes=":1_2_0 2001_0" intLanes=":1_5_0 :1_6_0 :1_7_0 :1_8_0 :1_9_0 :1_13_0 :1_14_0"/>
    <junction id=":1_17_0" type="internal" x="499.20" y="506.00" incLanes=":1_3_0 2001_0 3001_0 5001_0" intLanes=":1_4_0 :1_9_0 :1_14_0"/>
    <junction id=":1_18_0" type="internal" x="503.20" y="500.96" incLanes=":1_6_0 5001_0" intLanes=":1_1_0 :1_2_0 :1_9_0 :1_10_0 :1_11_0 :1_12_0 :1_13_0"/>
    <junction id=":1_19_0" type="internal" x="506.00" y="500.80" incLanes=":1_7_0 2001_0 4001_0 5001_0" intLanes=":1_2_0 :1_8_0 :1_13_0"/>
    <junction id=":1_20_0" type="internal" x="500.96" y="496.80" incLanes=":1_10_0 4001_0" intLanes=":1_0_0 :1_1_0 :1_5_0 :1_6_0 :1_13_0 :1_14_0 :1_15_0"/>
    <junction id=":1_21_0" type="internal" x="500.80" y="494.00" incLanes=":1_11_0 3001_0 4001_0 5001_0" intLanes=":1_1_0 :1_6_0 :1_12_0"/>
    <junction id=":1_22_0" type="internal" x="496.80" y="499.04" incLanes=":1_14_0 3001_0" intLanes=":1_1_0 :1_2_0 :1_3_0 :1_4_0 :1_5_0 :1_9_0 :1_10_0"/>
    <junction id=":1_23_0" type="internal" x="494.00" y="499.20" incLanes=":1_15_0 2001_0 3001_0 4001_0" intLanes=":1_0_0 :1_5_0 :1_10_0"/>

    <connection from="1002" to="2001" fromLane="0" toLane="0" via=":2_0_0" dir="t" state="M"/>
    <connection from="1003" to="3001" fromLane="0" toLane="0" via=":3_0_0" dir="t" state="M"/>
    <connection from="1004" to="4001" fromLane="0" toLane="0" via=":4_0_0" dir="t" state="M"/>
    <connection from="1005" to="5001" fromLane="0" toLane="0" via=":5_0_0" dir="t" state="M"/>
    <connection from="2001" to="1003" fromLane="0" toLane="0" via=":1_8_0" tl="1" linkIndex="8" dir="r" state="o"/>
    <connection from="2001" to="1004" fromLane="0" toLane="0" via=":1_9_0" tl="1" linkIndex="9" dir="s" state="o"/>
    <connection from="2001" to="1005" fromLane="0" toLane="0" via=":1_10_0" tl="1" linkIndex="10" dir="l" state="o"/>
    <connection from="2001" to="1002" fromLane="0" toLane="0" via=":1_11_0" tl="1" linkIndex="11" dir="t" state="o"/>
    <connection from="3001" to="1004" fromLane="0" toLane="0" via=":1_4_0" tl="1" linkIndex="4" dir="r" state="O"/>
    <connection from="3001" to="1005" fromLane="0" toLane="0" via=":1_5_0" tl="1" linkIndex="5" dir="s" state="O"/>
    <connection from="3001" to="1002" fromLane="0" toLane="0" via=":1_6_0" tl="1" linkIndex="6" dir="l" state="o"/>
    <connection from="3001" to="1003" fromLane="0" toLane="0" via=":1_7_0" tl="1" linkIndex="7" dir="t" state="o"/>
    <connection from="4001" to="1005" fromLane="0" toLane="0" via=":1_0_0" tl="1" linkIndex="0" dir="r" state="o"/>
    <connection from="4001" to="1002" fromLane="0" toLane="0" via=":1_1_0" tl="1" linkIndex="1" dir="s" state="o"/>
    <connection from="4001" to="1003" fromLane="0" toLane="0" via=":1_2_0" tl="1" linkIndex="2" dir="l" state="o"/>
    <connection from="4001" to="1004" fromLane="0" toLane="0" via=":1_3_0" tl="1" linkIndex="3" dir="t" state="o"/>
    <connection from="5001" to="1002" fromLane="0" toLane="0" via=":1_12_0" tl="1" linkIndex="12" dir="r" state="O"/>
    <connection from="5001" to="1003" fromLane="0" toLane="0" via=":1_13_0" tl="1" linkIndex="13" dir="s" state="O"/>
    <connection from="5001" to="1004" fromLane="0" toLane="0" via=":1_14_0" tl="1" linkIndex="14" dir="l" state="o"/>
    <connection from="5001" to="1005" fromLane="0" toLane="0" via=":1_15_0" tl="1" linkIndex="15" dir="t" state="o"/>

    <connection from=":1_0" to="1005" fromLane="0" toLane="0" dir="r" state="M"/>
    <connection from=":1_1" to="1002" fromLane="0" toLane="0" dir="s" state="M"/>
    <connection from=":1_2" to="1003" fromLane="0" toLane="0" via=":1_16_0" dir="l" state="m"/>
    <connection from=":1_16" to="1003" fromLane="0" toLane="0" dir="l" state="M"/>
    <connection from=":1_3" to="1004" fromLane="0" toLane="0" via=":1_17_0" dir="t" state="m"/>
    <connection from=":1_17" to="1004" fromLane="0" toLane="0" dir="t" state="M"/>
    <connection from=":1_4" to="1004" fromLane="0" toLane="0" dir="r" state="M"/>
    <connection from=":1_5" to="1005" fromLane="0" toLane="0" dir="s" state="M"/>
    <connection from=":1_6" to="1002" fromLane="0" toLane="0" via=":1_18_0" dir="l" state="m"/>
    <connection from=":1_18" to="1002" fromLane="0" toLane="0" dir="l" state="M"/>
    <connection from=":1_7" to="1003" fromLane="0" toLane="0" via=":1_19_0" dir="t" state="m"/>
    <connection from=":1_19" to="1003" fromLane="0" toLane="0" dir="t" state="M"/>
    <connection from=":1_8" to="1003" fromLane="0" toLane="0" dir="r" state="M"/>
    <connection from=":1_9" to="1004" fromLane="0" toLane="0" dir="s" state="M"/>
    <connection from=":1_10" to="1005" fromLane="0" toLane="0" via=":1_20_0" dir="l" state="m"/>
    <connection from=":1_20" to="1005" fromLane="0" toLane="0" dir="l" state="M"/>
    <connection from=":1_11" to="1002" fromLane="0" toLane="0" via=":1_21_0" dir="t" state="m"/>
    <connection from=":1_21" to="1002" fromLane="0" toLane="0" dir="t" state="M"/>
    <connection from=":1_12" to="1002" fromLane="0" toLane="0" dir="r" state="M"/>
    <connection from=":1_13" to="1003" fromLane="0" toLane="0" dir="s" state="M"/>
    <connection from=":1_14" to="1004" fromLane="0" toLane="0" via=":1_22_0" dir="l" state="m"/>
    <connection from=":1_22" to="1004" fromLane="0" toLane="0" dir="l" state="M"/>
    <connection from=":1_15" to="1005" fromLane="0" toLane="0" via=":1_23_0" dir="t" state="m"/>
    <connection from=":1_23" to="1005" fromLane="0" toLane="0" dir="t" state="M"/>
    <connection from=":2_0" to="2001" fromLane="0" toLane="0" dir="t" state="M"/>
    <connection from=":3_0" to="3001" fromLane="0" toLane="0" dir="t" state="M"/>
    <connection from=":4_0" to="4001" fromLane="0" toLane="0" dir="t" state="M"/>
    <connection from=":5_0" to="5001" fromLane="0" toLane="0" dir="t" state="M"/>

</net>
