<?xml version="1.0" encoding="UTF-8"?>
<edges xmlns:xsi="http://www.w3.org/2001/XMLSchema-instance"
xsi:noNamespaceSchemaLocation="http://sumo.dlr.de/xsd/edges_file.xsd">
    <edge id="2001" from="2" to="1" priority="80" numLanes="1" speed="9" />
    <edge id="1002" from="1" to="2" priority="80" numLanes="1" speed="11" />
    <edge id="3001" from="3" to="1" priority="80" numLanes="1" speed="13" />
    <edge id="1003" from="1" to="3" priority="80" numLanes="1" speed="7" />
    <edge id="4001" from="4" to="1" priority="80" numLanes="1" speed="6" />
    <edge id="1004" from="1" to="4" priority="80" numLanes="1" speed="11" />
    <edge id="5001" from="5" to="1" priority="80" numLanes="1" speed="11" />
    <edge id="1005" from="1" to="5" priority="80" numLanes="1" speed="12" />
</edges>
