<additional>
    <tlLogic id="1" programID="stuff" offset="0" type="static">
         <phase duration="12.475009376755773" state="rrrGGgrrrGGg" />
         <phase duration="5" state="rrryygrrryyg" />
         <phase duration="7.363922338142277" state="rrrrrGrrrrrG" />
         <phase duration="5" state="rrrrryrrrrry" />
         <phase duration="11.506987363122644" state="GGgrrrGGgrrr" />
         <phase duration="5" state="yygrrryygrrr" />
         <phase duration="9.23756770599417" state="rrGrrrrrGrrr" />
         <phase duration="5" state="rryrrrrryrrr" />
    </tlLogic>
    <tlLogic id="2" programID="stuff" offset="0" type="static">
         <phase duration="6.346570502041256" state="rrrGGgrrrGGg" />
         <phase duration="5" state="rrryygrrryyg" />
         <phase duration="12.013544860022538" state="rrrrrGrrrrrG" />
         <phase duration="5" state="rrrrryrrrrry" />
         <phase duration="8.860371608031398" state="GGgrrrGGgrrr" />
         <phase duration="5" state="yygrrryygrrr" />
         <phase duration="14.496113244107384" state="rrGrrrrrGrrr" />
         <phase duration="5" state="rryrrrrryrrr" />
    </tlLogic>
    <tlLogic id="3" programID="stuff" offset="0" type="static">
         <phase duration="9.895489114085084" state="rrrGGgrrrGGg" />
         <phase duration="5" state="rrryygrrryyg" />
         <phase duration="8.275489572590816" state="rrrrrGrrrrrG" />
         <phase duration="5" state="rrrrryrrrrry" />
         <phase duration="7.727670771121606" state="GGgrrrGGgrrr" />
         <phase duration="5" state="yygrrryygrrr" />
         <phase duration="13.134323146560366" state="rrGrrrrrGrrr" />
         <phase duration="5" state="rryrrrrryrrr" />
    </tlLogic>
    <tlLogic id="4" programID="stuff" offset="0" type="static">
         <phase duration="11.86341721903952" state="rrrGGgrrrGGg" />
         <phase duration="5" state="rrryygrrryyg" />
         <phase duration="13.694392433509302" state="rrrrrGrrrrrG" />
         <phase duration="5" state="rrrrryrrrrry" />
         <phase duration="14.37672233951504" state="GGgrrrGGgrrr" />
         <phase duration="5" state="yygrrryygrrr" />
         <phase duration="5.261712738382669" state="rrGrrrrrGrrr" />
         <phase duration="5" state="rryrrrrryrrr" />
    </tlLogic>
    <tlLogic id="5" programID="stuff" offset="0" type="static">
         <phase duration="5.12772377545215" state="rrrGGgrrrGGg" />
         <phase duration="5" state="rrryygrrryyg" />
         <phase duration="10.405735611691524" state="rrrrrGrrrrrG" />
         <phase duration="5" state="rrrrryrrrrry" />
         <phase duration="11.490304394714446" state="GGgrrrGGgrrr" />
         <phase duration="5" state="yygrrryygrrr" />
         <phase duration="12.3714272227095" state="rrGrrrrrGrrr" />
         <phase duration="5" state="rryrrrrryrrr" />
    </tlLogic>
    <tlLogic id="6" programID="stuff" offset="0" type="static">
         <phase duration="8.802331720650312" state="rrrGGgrrrGGg" />
         <phase duration="5" state="rrryygrrryyg" />
         <phase duration="10.98767587700269" state="rrrrrGrrrrrG" />
         <phase duration="5" state="rrrrryrrrrry" />
         <phase duration="6.280653523153136" state="GGgrrrGGgrrr" />
         <phase duration="5" state="yygrrryygrrr" />
         <phase duration="12.929719271492132" state="rrGrrrrrGrrr" />
         <phase duration="5" state="rryrrrrryrrr" />
    </tlLogic>
    <tlLogic id="7" programID="stuff" offset="0" type="static">
         <phase duration="11.011675269086535" state="rrrGGgrrrGGg" />
         <phase duration="5" state="rrryygrrryyg" />
         <phase duration="13.433836676502093" state="rrrrrGrrrrrG" />
         <phase duration="5" state="rrrrryrrrrry" />
         <phase duration="6.346640421535101" state="GGgrrrGGgrrr" />
         <phase duration="5" state="yygrrryygrrr" />
         <phase duration="10.450148797508525" state="rrGrrrrrGrrr" />
         <phase duration="5" state="rryrrrrryrrr" />
    </tlLogic>
    <tlLogic id="8" programID="stuff" offset="0" type="static">
         <phase duration="7.71784287893469" state="rrrGGgrrrGGg" />
         <phase duration="5" state="rrryygrrryyg" />
         <phase duration="8.95733358924975" state="rrrrrGrrrrrG" />
         <phase duration="5" state="rrrrryrrrrry" />
         <phase duration="10.025303335975476" state="GGgrrrGGgrrr" />
         <phase duration="5" state="yygrrryygrrr" />
         <phase duration="14.966221976389887" state="rrGrrrrrGrrr" />
         <phase duration="5" state="rryrrrrryrrr" />
    </tlLogic>
    <tlLogic id="9" programID="stuff" offset="0" type="static">
         <phase duration="10.214410827952936" state="rrrGGgrrrGGg" />
         <phase duration="5" state="rrryygrrryyg" />
         <phase duration="11.335156193595992" state="rrrrrGrrrrrG" />
         <phase duration="5" state="rrrrryrrrrry" />
         <phase duration="9.86475727861116" state="GGgrrrGGgrrr" />
         <phase duration="5" state="yygrrryygrrr" />
         <phase duration="14.0873243874897" state="rrGrrrrrGrrr" />
         <phase duration="5" state="rryrrrrryrrr" />
    </tlLogic>
    <tlLogic id="10" programID="stuff" offset="0" type="static">
         <phase duration="7.804245369262814" state="rrrGGgrrrGGg" />
         <phase duration="5" state="rrryygrrryyg" />
         <phase duration="13.350099458501028" state="rrrrrGrrrrrG" />
         <phase duration="5" state="rrrrryrrrrry" />
         <phase duration="10.993795021373728" state="GGgrrrGGgrrr" />
         <phase duration="5" state="yygrrryygrrr" />
         <phase duration="14.230072797459114" state="rrGrrrrrGrrr" />
         <phase duration="5" state="rryrrrrryrrr" />
    </tlLogic>
    <tlLogic id="11" programID="stuff" offset="0" type="static">
         <phase duration="12.17619194020206" state="rrrGGgrrrGGg" />
         <phase duration="5" state="rrryygrrryyg" />
         <phase duration="8.312956396590437" state="rrrrrGrrrrrG" />
         <phase duration="5" state="rrrrryrrrrry" />
         <phase duration="10.811536982660321" state="GGgrrrGGgrrr" />
         <phase duration="5" state="yygrrryygrrr" />
         <phase duration="5.696634012341758" state="rrGrrrrrGrrr" />
         <phase duration="5" state="rryrrrrryrrr" />
    </tlLogic>
    <tlLogic id="12" programID="stuff" offset="0" type="static">
         <phase duration="6.695772166529457" state="rrrGGgrrrGGg" />
         <phase duration="5" state="rrryygrrryyg" />
         <phase duration="13.787051678021676" state="rrrrrGrrrrrG" />
         <phase duration="5" state="rrrrryrrrrry" />
         <phase duration="11.012898547742928" state="GGgrrrGGgrrr" />
         <phase duration="5" state="yygrrryygrrr" />
         <phase duration="12.864598946747858" state="rrGrrrrrGrrr" />
         <phase duration="5" state="rryrrrrryrrr" />
    </tlLogic>
    <tlLogic id="13" programID="stuff" offset="0" type="static">
         <phase duration="12.068508951107388" state="rrrGGgrrrGGg" />
         <phase duration="5" state="rrryygrrryyg" />
         <phase duration="5.020507256134241" state="rrrrrGrrrrrG" />
         <phase duration="5" state="rrrrryrrrrry" />
         <phase duration="6.167884371251311" state="GGgrrrGGgrrr" />
         <phase duration="5" state="yygrrryygrrr" />
         <phase duration="11.091973746947552" state="rrGrrrrrGrrr" />
         <phase duration="5" state="rryrrrrryrrr" />
    </tlLogic>
    <tlLogic id="14" programID="stuff" offset="0" type="static">
         <phase duration="7.233363550755069" state="rrrGGgrrrGGg" />
         <phase duration="5" state="rrryygrrryyg" />
         <phase duration="10.296491386343165" state="rrrrrGrrrrrG" />
         <phase duration="5" state="rrrrryrrrrry" />
         <phase duration="11.97489604864039" state="GGgrrrGGgrrr" />
         <phase duration="5" state="yygrrryygrrr" />
         <phase duration="10.566514841517805" state="rrGrrrrrGrrr" />
         <phase duration="5" state="rryrrrrryrrr" />
    </tlLogic>
    <tlLogic id="15" programID="stuff" offset="0" type="static">
         <phase duration="6.373477707819616" state="rrrGGgrrrGGg" />
         <phase duration="5" state="rrryygrrryyg" />
         <phase duration="14.25775661928615" state="rrrrrGrrrrrG" />
         <phase duration="5" state="rrrrryrrrrry" />
         <phase duration="5.884276415857351" state="GGgrrrGGgrrr" />
         <phase duration="5" state="yygrrryygrrr" />
         <phase duration="6.448188982055924" state="rrGrrrrrGrrr" />
         <phase duration="5" state="rryrrrrryrrr" />
    </tlLogic>
    <tlLogic id="16" programID="stuff" offset="0" type="static">
         <phase duration="14.667757033714235" state="rrrGGgrrrGGg" />
         <phase duration="5" state="rrryygrrryyg" />
         <phase duration="11.581031984590043" state="rrrrrGrrrrrG" />
         <phase duration="5" state="rrrrryrrrrry" />
         <phase duration="14.637914948684163" state="GGgrrrGGgrrr" />
         <phase duration="5" state="yygrrryygrrr" />
         <phase duration="9.861053636512914" state="rrGrrrrrGrrr" />
         <phase duration="5" state="rryrrrrryrrr" />
    </tlLogic>
    <tlLogic id="17" programID="stuff" offset="0" type="static">
         <phase duration="9.10295089112941" state="rrrGGgrrrGGg" />
         <phase duration="5" state="rrryygrrryyg" />
         <phase duration="14.95051168595942" state="rrrrrGrrrrrG" />
         <phase duration="5" state="rrrrryrrrrry" />
         <phase duration="7.415449817843739" state="GGgrrrGGgrrr" />
         <phase duration="5" state="yygrrryygrrr" />
         <phase duration="14.950824894225299" state="rrGrrrrrGrrr" />
         <phase duration="5" state="rryrrrrryrrr" />
    </tlLogic>
    <tlLogic id="18" programID="stuff" offset="0" type="static">
         <phase duration="7.380549996153495" state="rrrGGgrrrGGg" />
         <phase duration="5" state="rrryygrrryyg" />
         <phase duration="7.700093100631818" state="rrrrrGrrrrrG" />
         <phase duration="5" state="rrrrryrrrrry" />
         <phase duration="11.695066931931255" state="GGgrrrGGgrrr" />
         <phase duration="5" state="yygrrryygrrr" />
         <phase duration="7.877040352935209" state="rrGrrrrrGrrr" />
         <phase duration="5" state="rryrrrrryrrr" />
    </tlLogic>
    <tlLogic id="19" programID="stuff" offset="0" type="static">
         <phase duration="10.136134658666489" state="rrrGGgrrrGGg" />
         <phase duration="5" state="rrryygrrryyg" />
         <phase duration="13.24422351605927" state="rrrrrGrrrrrG" />
         <phase duration="5" state="rrrrryrrrrry" />
         <phase duration="7.542412405588279" state="GGgrrrGGgrrr" />
         <phase duration="5" state="yygrrryygrrr" />
         <phase duration="9.93859746838477" state="rrGrrrrrGrrr" />
         <phase duration="5" state="rryrrrrryrrr" />
    </tlLogic>
    <tlLogic id="20" programID="stuff" offset="0" type="static">
         <phase duration="13.54357702550862" state="rrrGGgrrrGGg" />
         <phase duration="5" state="rrryygrrryyg" />
         <phase duration="7.863461622662497" state="rrrrrGrrrrrG" />
         <phase duration="5" state="rrrrryrrrrry" />
         <phase duration="13.986861839961426" state="GGgrrrGGgrrr" />
         <phase duration="5" state="yygrrryygrrr" />
         <phase duration="10.387682917206382" state="rrGrrrrrGrrr" />
         <phase duration="5" state="rryrrrrryrrr" />
    </tlLogic>
    <tlLogic id="21" programID="stuff" offset="0" type="static">
         <phase duration="14.254314894279934" state="rrrGGgrrrGGg" />
         <phase duration="5" state="rrryygrrryyg" />
         <phase duration="7.085032114863875" state="rrrrrGrrrrrG" />
         <phase duration="5" state="rrrrryrrrrry" />
         <phase duration="12.553001335952231" state="GGgrrrGGgrrr" />
         <phase duration="5" state="yygrrryygrrr" />
         <phase duration="7.842890025596686" state="rrGrrrrrGrrr" />
         <phase duration="5" state="rryrrrrryrrr" />
    </tlLogic>
    <tlLogic id="22" programID="stuff" offset="0" type="static">
         <phase duration="10.32337173428476" state="rrrGGgrrrGGg" />
         <phase duration="5" state="rrryygrrryyg" />
         <phase duration="13.395577470992935" state="rrrrrGrrrrrG" />
         <phase duration="5" state="rrrrryrrrrry" />
         <phase duration="14.555588250926784" state="GGgrrrGGgrrr" />
         <phase duration="5" state="yygrrryygrrr" />
         <phase duration="5.450757349023011" state="rrGrrrrrGrrr" />
         <phase duration="5" state="rryrrrrryrrr" />
    </tlLogic>
    <tlLogic id="23" programID="stuff" offset="0" type="static">
         <phase duration="9.052016223417034" state="rrrGGgrrrGGg" />
         <phase duration="5" state="rrryygrrryyg" />
         <phase duration="13.526684566584633" state="rrrrrGrrrrrG" />
         <phase duration="5" state="rrrrryrrrrry" />
         <phase duration="12.724933009060546" state="GGgrrrGGgrrr" />
         <phase duration="5" state="yygrrryygrrr" />
         <phase duration="6.8239395213069045" state="rrGrrrrrGrrr" />
         <phase duration="5" state="rryrrrrryrrr" />
    </tlLogic>
    <tlLogic id="24" programID="stuff" offset="0" type="static">
         <phase duration="9.161372644949658" state="rrrGGgrrrGGg" />
         <phase duration="5" state="rrryygrrryyg" />
         <phase duration="12.126924833618245" state="rrrrrGrrrrrG" />
         <phase duration="5" state="rrrrryrrrrry" />
         <phase duration="7.957008873764316" state="GGgrrrGGgrrr" />
         <phase duration="5" state="yygrrryygrrr" />
         <phase duration="13.789729432326212" state="rrGrrrrrGrrr" />
         <phase duration="5" state="rryrrrrryrrr" />
    </tlLogic>
    <tlLogic id="25" programID="stuff" offset="0" type="static">
         <phase duration="7.002130847894897" state="rrrGGgrrrGGg" />
         <phase duration="5" state="rrryygrrryyg" />
         <phase duration="11.84769339975374" state="rrrrrGrrrrrG" />
         <phase duration="5" state="rrrrryrrrrry" />
         <phase duration="14.942258641134952" state="GGgrrrGGgrrr" />
         <phase duration="5" state="yygrrryygrrr" />
         <phase duration="6.047127638801743" state="rrGrrrrrGrrr" />
         <phase duration="5" state="rryrrrrryrrr" />
    </tlLogic>
</additional>
