<additional>
    <tlLogic id="1" programID="stuff" offset="0" type="static">
         <phase duration="10.019916695370402" state="rrrGGgrrrGGg" />
         <phase duration="5" state="rrryygrrryyg" />
         <phase duration="8.882222133317267" state="rrrrrGrrrrrG" />
         <phase duration="5" state="rrrrryrrrrry" />
         <phase duration="6.055489105380566" state="GGgrrrGGgrrr" />
         <phase duration="5" state="yygrrryygrrr" />
         <phase duration="14.587071831991663" state="rrGrrrrrGrrr" />
         <phase duration="5" state="rryrrrrryrrr" />
    </tlLogic>
    <tlLogic id="2" programID="stuff" offset="0" type="static">
         <phase duration="12.251244022341469" state="rrrGGgrrrGGg" />
         <phase duration="5" state="rrryygrrryyg" />
         <phase duration="6.482214872608046" state="rrrrrGrrrrrG" />
         <phase duration="5" state="rrrrryrrrrry" />
         <phase duration="12.604351263038662" state="GGgrrrGGgrrr" />
         <phase duration="5" state="yygrrryygrrr" />
         <phase duration="14.106886549633899" state="rrGrrrrrGrrr" />
         <phase duration="5" state="rryrrrrryrrr" />
    </tlLogic>
    <tlLogic id="3" programID="stuff" offset="0" type="static">
         <phase duration="6.027680123784513" state="rrrGGgrrrGGg" />
         <phase duration="5" state="rrryygrrryyg" />
         <phase duration="10.04612915362592" state="rrrrrGrrrrrG" />
         <phase duration="5" state="rrrrryrrrrry" />
         <phase duration="11.809549055179788" state="GGgrrrGGgrrr" />
         <phase duration="5" state="yygrrryygrrr" />
         <phase duration="10.373906249454508" state="rrGrrrrrGrrr" />
         <phase duration="5" state="rryrrrrryrrr" />
    </tlLogic>
    <tlLogic id="4" programID="stuff" offset="0" type="static">
         <phase duration="14.004183207906088" state="rrrGGgrrrGGg" />
         <phase duration="5" state="rrryygrrryyg" />
         <phase duration="11.600354554263099" state="rrrrrGrrrrrG" />
         <phase duration="5" state="rrrrryrrrrry" />
         <phase duration="14.390598608088604" state="GGgrrrGGgrrr" />
         <phase duration="5" state="yygrrryygrrr" />
         <phase duration="6.619031082832334" state="rrGrrrrrGrrr" />
         <phase duration="5" state="rryrrrrryrrr" />
    </tlLogic>
    <tlLogic id="5" programID="stuff" offset="0" type="static">
         <phase duration="9.705814174170873" state="rrrGGgrrrGGg" />
         <phase duration="5" state="rrryygrrryyg" />
         <phase duration="8.429043862656625" state="rrrrrGrrrrrG" />
         <phase duration="5" state="rrrrryrrrrry" />
         <phase duration="10.276147054581443" state="GGgrrrGGgrrr" />
         <phase duration="5" state="yygrrryygrrr" />
         <phase duration="10.374299537402006" state="rrGrrrrrGrrr" />
         <phase duration="5" state="rryrrrrryrrr" />
    </tlLogic>
    <tlLogic id="6" programID="stuff" offset="0" type="static">
         <phase duration="13.2988294880961" state="rrrGGgrrrGGg" />
         <phase duration="5" state="rrryygrrryyg" />
         <phase duration="8.976782996502564" state="rrrrrGrrrrrG" />
         <phase duration="5" state="rrrrryrrrrry" />
         <phase duration="6.285592427447754" state="GGgrrrGGgrrr" />
         <phase duration="5" state="yygrrryygrrr" />
         <phase duration="5.94847906765248" state="rrGrrrrrGrrr" />
         <phase duration="5" state="rryrrrrryrrr" />
    </tlLogic>
    <tlLogic id="7" programID="stuff" offset="0" type="static">
         <phase duration="6.105456056204771" state="rrrGGgrrrGGg" />
         <phase duration="5" state="rrryygrrryyg" />
         <phase duration="8.820466348068571" state="rrrrrGrrrrrG" />
         <phase duration="5" state="rrrrryrrrrry" />
         <phase duration="5.3471339966523335" state="GGgrrrGGgrrr" />
         <phase duration="5" state="yygrrryygrrr" />
         <phase duration="13.500891420802017" state="rrGrrrrrGrrr" />
         <phase duration="5" state="rryrrrrryrrr" />
    </tlLogic>
    <tlLogic id="8" programID="stuff" offset="0" type="static">
         <phase duration="10.43805016982891" state="rrrGGgrrrGGg" />
         <phase duration="5" state="rrryygrrryyg" />
         <phase duration="14.741234425933419" state="rrrrrGrrrrrG" />
         <phase duration="5" state="rrrrryrrrrry" />
         <phase duration="12.255436146007037" state="GGgrrrGGgrrr" />
         <phase duration="5" state="yygrrryygrrr" />
         <phase duration="12.327626123576957" state="rrGrrrrrGrrr" />
         <phase duration="5" state="rryrrrrryrrr" />
    </tlLogic>
    <tlLogic id="9" programID="stuff" offset="0" type="static">
         <phase duration="7.2509004896175195" state="rrrGGgrrrGGg" />
         <phase duration="5" state="rrryygrrryyg" />
         <phase duration="12.63482520868514" state="rrrrrGrrrrrG" />
         <phase duration="5" state="rrrrryrrrrry" />
         <phase duration="13.701996421809076" state="GGgrrrGGgrrr" />
         <phase duration="5" state="yygrrryygrrr" />
         <phase duration="13.127529372085812" state="rrGrrrrrGrrr" />
         <phase duration="5" state="rryrrrrryrrr" />
    </tlLogic>
    <tlLogic id="10" programID="stuff" offset="0" type="static">
         <phase duration="10.29784923466611" state="rrrGGgrrrGGg" />
         <phase duration="5" state="rrryygrrryyg" />
         <phase duration="8.144381272397453" state="rrrrrGrrrrrG" />
         <phase duration="5" state="rrrrryrrrrry" />
         <phase duration="14.35793146820081" state="GGgrrrGGgrrr" />
         <phase duration="5" state="yygrrryygrrr" />
         <phase duration="7.363138810658267" state="rrGrrrrrGrrr" />
         <phase duration="5" state="rryrrrrryrrr" />
    </tlLogic>
    <tlLogic id="11" programID="stuff" offset="0" type="static">
         <phase duration="7.544566870850895" state="rrrGGgrrrGGg" />
         <phase duration="5" state="rrryygrrryyg" />
         <phase duration="13.454576583556117" state="rrrrrGrrrrrG" />
         <phase duration="5" state="rrrrryrrrrry" />
         <phase duration="6.812790364926292" state="GGgrrrGGgrrr" />
         <phase duration="5" state="yygrrryygrrr" />
         <phase duration="9.689543917254982" state="rrGrrrrrGrrr" />
         <phase duration="5" state="rryrrrrryrrr" />
    </tlLogic>
    <tlLogic id="12" programID="stuff" offset="0" type="static">
         <phase duration="11.188653141024526" state="rrrGGgrrrGGg" />
         <phase duration="5" state="rrryygrrryyg" />
         <phase duration="12.510608460001164" state="rrrrrGrrrrrG" />
         <phase duration="5" state="rrrrryrrrrry" />
         <phase duration="5.4389758348939345" state="GGgrrrGGgrrr" />
         <phase duration="5" state="yygrrryygrrr" />
         <phase duration="6.461900354994984" state="rrGrrrrrGrrr" />
         <phase duration="5" state="rryrrrrryrrr" />
    </tlLogic>
    <tlLogic id="13" programID="stuff" offset="0" type="static">
         <phase duration="7.967657014396111" state="rrrGGgrrrGGg" />
         <phase duration="5" state="rrryygrrryyg" />
         <phase duration="12.836564375413479" state="rrrrrGrrrrrG" />
         <phase duration="5" state="rrrrryrrrrry" />
         <phase duration="7.312990895883366" state="GGgrrrGGgrrr" />
         <phase duration="5" state="yygrrryygrrr" />
         <phase duration="11.523732339003555" state="rrGrrrrrGrrr" />
         <phase duration="5" state="rryrrrrryrrr" />
    </tlLogic>
    <tlLogic id="14" programID="stuff" offset="0" type="static">
         <phase duration="10.059681175101279" state="rrrGGgrrrGGg" />
         <phase duration="5" state="rrryygrrryyg" />
         <phase duration="14.40360823237771" state="rrrrrGrrrrrG" />
         <phase duration="5" state="rrrrryrrrrry" />
         <phase duration="14.404640199866002" state="GGgrrrGGgrrr" />
         <phase duration="5" state="yygrrryygrrr" />
         <phase duration="7.30392881476787" state="rrGrrrrrGrrr" />
         <phase duration="5" state="rryrrrrryrrr" />
    </tlLogic>
    <tlLogic id="15" programID="stuff" offset="0" type="static">
         <phase duration="10.789893074966255" state="rrrGGgrrrGGg" />
         <phase duration="5" state="rrryygrrryyg" />
         <phase duration="9.82424126399653" state="rrrrrGrrrrrG" />
         <phase duration="5" state="rrrrryrrrrry" />
         <phase duration="9.436800964678811" state="GGgrrrGGgrrr" />
         <phase duration="5" state="yygrrryygrrr" />
         <phase duration="10.572080385641446" state="rrGrrrrrGrrr" />
         <phase duration="5" state="rryrrrrryrrr" />
    </tlLogic>
    <tlLogic id="16" programID="stuff" offset="0" type="static">
         <phase duration="6.53169800416327" state="rrrGGgrrrGGg" />
         <phase duration="5" state="rrryygrrryyg" />
         <phase duration="7.075396909071793" state="rrrrrGrrrrrG" />
         <phase duration="5" state="rrrrryrrrrry" />
         <phase duration="7.906742555867824" state="GGgrrrGGgrrr" />
         <phase duration="5" state="yygrrryygrrr" />
         <phase duration="14.353972593525915" state="rrGrrrrrGrrr" />
         <phase duration="5" state="rryrrrrryrrr" />
    </tlLogic>
    <tlLogic id="17" programID="stuff" offset="0" type="static">
         <phase duration="7.15010633516318" state="rrrGGgrrrGGg" />
         <phase duration="5" state="rrryygrrryyg" />
         <phase duration="10.256523530043449" state="rrrrrGrrrrrG" />
         <phase duration="5" state="rrrrryrrrrry" />
         <phase duration="13.246304118371077" state="GGgrrrGGgrrr" />
         <phase duration="5" state="yygrrryygrrr" />
         <phase duration="11.298764800982353" state="rrGrrrrrGrrr" />
         <phase duration="5" state="rryrrrrryrrr" />
    </tlLogic>
    <tlLogic id="18" programID="stuff" offset="0" type="static">
         <phase duration="8.030642650332876" state="rrrGGgrrrGGg" />
         <phase duration="5" state="rrryygrrryyg" />
         <phase duration="10.90725337817084" state="rrrrrGrrrrrG" />
         <phase duration="5" state="rrrrryrrrrry" />
         <phase duration="7.016271452627301" state="GGgrrrGGgrrr" />
         <phase duration="5" state="yygrrryygrrr" />
         <phase duration="5.280917408060625" state="rrGrrrrrGrrr" />
         <phase duration="5" state="rryrrrrryrrr" />
    </tlLogic>
    <tlLogic id="19" programID="stuff" offset="0" type="static">
         <phase duration="7.891254745952895" state="rrrGGgrrrGGg" />
         <phase duration="5" state="rrryygrrryyg" />
         <phase duration="11.528553238193556" state="rrrrrGrrrrrG" />
         <phase duration="5" state="rrrrryrrrrry" />
         <phase duration="5.86856290128663" state="GGgrrrGGgrrr" />
         <phase duration="5" state="yygrrryygrrr" />
         <phase duration="7.240118928012327" state="rrGrrrrrGrrr" />
         <phase duration="5" state="rryrrrrryrrr" />
    </tlLogic>
    <tlLogic id="20" programID="stuff" offset="0" type="static">
         <phase duration="12.020466360762924" state="rrrGGgrrrGGg" />
         <phase duration="5" state="rrryygrrryyg" />
         <phase duration="10.623136254399396" state="rrrrrGrrrrrG" />
         <phase duration="5" state="rrrrryrrrrry" />
         <phase duration="11.004023145109258" state="GGgrrrGGgrrr" />
         <phase duration="5" state="yygrrryygrrr" />
         <phase duration="12.351040861858916" state="rrGrrrrrGrrr" />
         <phase duration="5" state="rryrrrrryrrr" />
    </tlLogic>
    <tlLogic id="21" programID="stuff" offset="0" type="static">
         <phase duration="8.702211097541696" state="rrrGGgrrrGGg" />
         <phase duration="5" state="rrryygrrryyg" />
         <phase duration="8.201395930701718" state="rrrrrGrrrrrG" />
         <phase duration="5" state="rrrrryrrrrry" />
         <phase duration="7.70274135467056" state="GGgrrrGGgrrr" />
         <phase duration="5" state="yygrrryygrrr" />
         <phase duration="5.679546689695169" state="rrGrrrrrGrrr" />
         <phase duration="5" state="rryrrrrryrrr" />
    </tlLogic>
    <tlLogic id="22" programID="stuff" offset="0" type="static">
         <phase duration="12.188102200665583" state="rrrGGgrrrGGg" />
         <phase duration="5" state="rrryygrrryyg" />
         <phase duration="13.276266757978494" state="rrrrrGrrrrrG" />
         <phase duration="5" state="rrrrryrrrrry" />
         <phase duration="13.161941658014936" state="GGgrrrGGgrrr" />
         <phase duration="5" state="yygrrryygrrr" />
         <phase duration="9.013535444063503" state="rrGrrrrrGrrr" />
         <phase duration="5" state="rryrrrrryrrr" />
    </tlLogic>
    <tlLogic id="23" programID="stuff" offset="0" type="static">
         <phase duration="11.88601310475445" state="rrrGGgrrrGGg" />
         <phase duration="5" state="rrryygrrryyg" />
         <phase duration="13.188150486662387" state="rrrrrGrrrrrG" />
         <phase duration="5" state="rrrrryrrrrry" />
         <phase duration="5.025660671837842" state="GGgrrrGGgrrr" />
         <phase duration="5" state="yygrrryygrrr" />
         <phase duration="11.725143558552954" state="rrGrrrrrGrrr" />
         <phase duration="5" state="rryrrrrryrrr" />
    </tlLogic>
    <tlLogic id="24" programID="stuff" offset="0" type="static">
         <phase duration="9.61123004375753" state="rrrGGgrrrGGg" />
         <phase duration="5" state="rrryygrrryyg" />
         <phase duration="14.96319344953076" state="rrrrrGrrrrrG" />
         <phase duration="5" state="rrrrryrrrrry" />
         <phase duration="5.658603197325965" state="GGgrrrGGgrrr" />
         <phase duration="5" state="yygrrryygrrr" />
         <phase duration="9.244500213393437" state="rrGrrrrrGrrr" />
         <phase duration="5" state="rryrrrrryrrr" />
    </tlLogic>
    <tlLogic id="25" programID="stuff" offset="0" type="static">
         <phase duration="9.174259156993173" state="rrrGGgrrrGGg" />
         <phase duration="5" state="rrryygrrryyg" />
         <phase duration="9.902767349716372" state="rrrrrGrrrrrG" />
         <phase duration="5" state="rrrrryrrrrry" />
         <phase duration="7.498260295731111" state="GGgrrrGGgrrr" />
         <phase duration="5" state="yygrrryygrrr" />
         <phase duration="6.419993605292667" state="rrGrrrrrGrrr" />
         <phase duration="5" state="rryrrrrryrrr" />
    </tlLogic>
</additional>
