<?xml version="1.0" encoding="UTF-8"?>
<nodes xmlns:xsi="http://www.w3.org/2001/XMLSchema-instance"
xsi:noNamespaceSchemaLocation="http://sumo.dlr.de/xsd/nodes_file.xsd">
    <node id="1" x="500" y="500"  type="traffic_light"/>
    <node id="2" x="500" y="0"  type="priority"/>
    <node id="3" x="1000" y="500"  type="priority"/>
    <node id="4" x="500" y="1000"  type="priority"/>
    <node id="5" x="0" y="500"  type="priority"/>
</nodes>
